recall.rec: written by SWAT+ editor v2.0.4 on 2021-11-11 16:22
      id  name               rec_typ  file              
       1  pt0008                   4  pt0008            
       2  pt0010                   4  pt0010            
       3  pt0012                   4  pt0012            
       4  pt0014                   4  pt0014            
       5  pt0016                   4  pt0016            
       6  pt0018                   4  pt0018            
       7  pt0020                   4  pt0020            
       8  pt0022                   4  pt0022            
       9  pt0024                   4  pt0024            
      10  pt0026                   4  pt0026            
      11  pt0028                   4  pt0028            
      12  pt0030                   4  pt0030            
      13  pt0032                   4  pt0032            
      14  pt0034                   4  pt0034            
      15  pt0036                   4  pt0036            
      16  pt0038                   4  pt0038            
      17  pt0040                   4  pt0040            
      18  pt0042                   4  pt0042            
      19  pt0044                   4  pt0044            
      20  pt0046                   4  pt0046            
      21  pt0048                   4  pt0048            
      22  pt0050                   4  pt0050            
      23  pt0052                   4  pt0052            
      24  pt0054                   4  pt0054            
      25  pt0056                   4  pt0056            
      26  pt0058                   4  pt0058            
      27  pt0060                   4  pt0060            
      28  pt0062                   4  pt0062            
      29  pt0064                   4  pt0064            
      30  pt0066                   4  pt0066            
      31  pt0068                   4  pt0068            
      32  pt0070                   4  pt0070            
      33  pt0072                   4  pt0072            
      34  pt0074                   4  pt0074            
      35  pt0076                   4  pt0076            
      36  pt0078                   4  pt0078            
      37  pt0080                   4  pt0080            
      38  pt0082                   4  pt0082            
      39  pt0084                   4  pt0084            
      40  pt0086                   4  pt0086            
      41  pt0088                   4  pt0088            
      42  pt0090                   4  pt0090            
      43  pt0092                   4  pt0092            
      44  pt0094                   4  pt0094            
      45  pt0096                   4  pt0096            
      46  pt0098                   4  pt0098            
      47  pt0100                   4  pt0100            
      48  pt0102                   4  pt0102            
      49  pt0104                   4  pt0104            
      50  pt0106                   4  pt0106            
      51  pt0108                   4  pt0108            
      52  pt0110                   4  pt0110            
      53  pt0112                   4  pt0112            
      54  pt0114                   4  pt0114            
      55  pt0116                   4  pt0116            
      56  pt0118                   4  pt0118            
      57  pt0120                   4  pt0120            
      58  pt0122                   4  pt0122            
      59  pt0124                   4  pt0124            
      60  pt0126                   4  pt0126            
      61  pt0128                   4  pt0128            
      62  pt0130                   4  pt0130            
      63  pt0132                   4  pt0132            
      64  pt0134                   4  pt0134            
      65  pt0136                   4  pt0136            
      66  pt0138                   4  pt0138            
      67  pt0140                   4  pt0140            
      68  pt0142                   4  pt0142            
      69  pt0144                   4  pt0144            
      70  pt0146                   4  pt0146            
      71  pt0148                   4  pt0148            
      72  pt0150                   4  pt0150            
      73  pt0152                   4  pt0152            
      74  pt0154                   4  pt0154            
      75  pt0156                   4  pt0156            
      76  pt0158                   4  pt0158            
      77  pt0160                   4  pt0160            
      78  pt0162                   4  pt0162            
      79  pt0164                   4  pt0164            
      80  pt0166                   4  pt0166            
      81  pt0168                   4  pt0168            
      82  pt0170                   4  pt0170            
      83  pt0172                   4  pt0172            
      84  pt0174                   4  pt0174            
      85  pt0176                   4  pt0176            
      86  pt0178                   4  pt0178            
      87  pt0180                   4  pt0180            
      88  pt0182                   4  pt0182            
      89  pt0184                   4  pt0184            
      90  pt0186                   4  pt0186            
      91  pt0188                   4  pt0188            
      92  pt0190                   4  pt0190            
      93  pt0192                   4  pt0192            
      94  pt0194                   4  pt0194            
      95  pt0196                   4  pt0196            
      96  pt0198                   4  pt0198            
      97  pt0200                   4  pt0200            
      98  pt0202                   4  pt0202            
      99  pt0204                   4  pt0204            
     100  pt0206                   4  pt0206            
     101  pt0208                   4  pt0208            
     102  pt0210                   4  pt0210            
     103  pt0212                   4  pt0212            
     104  pt0214                   4  pt0214            
     105  pt0216                   4  pt0216            
     106  pt0218                   4  pt0218            
     107  pt0220                   4  pt0220            
     108  pt0222                   4  pt0222            
     109  pt0224                   4  pt0224            
     110  pt0226                   4  pt0226            
     111  pt0228                   4  pt0228            
     112  pt0230                   4  pt0230            
     113  pt0232                   4  pt0232            
     114  pt0234                   4  pt0234            
     115  pt0236                   4  pt0236            
     116  pt0238                   4  pt0238            
     117  pt0240                   4  pt0240            
     118  pt0242                   4  pt0242            
     119  pt0244                   4  pt0244            
     120  pt0246                   4  pt0246            
     121  pt0248                   4  pt0248            
     122  pt0250                   4  pt0250            
     123  pt0252                   4  pt0252            
     124  pt0254                   4  pt0254            
     125  pt0256                   4  pt0256            
     126  pt0258                   4  pt0258            
     127  pt0260                   4  pt0260            
     128  pt0262                   4  pt0262            
     129  pt0264                   4  pt0264            
     130  pt0266                   4  pt0266            
     131  pt0268                   4  pt0268            
     132  pt0270                   4  pt0270            
     133  pt0272                   4  pt0272            
     134  pt0274                   4  pt0274            
     135  pt0276                   4  pt0276            
     136  pt0278                   4  pt0278            
     137  pt0280                   4  pt0280            
     138  pt0282                   4  pt0282            
     139  pt0284                   4  pt0284            
     140  pt0286                   4  pt0286            
     141  pt0288                   4  pt0288            
     142  pt0290                   4  pt0290            
     143  pt0292                   4  pt0292            
     144  pt0294                   4  pt0294            
     145  pt0296                   4  pt0296            
     146  pt0298                   4  pt0298            
     147  pt0300                   4  pt0300            
     148  pt0302                   4  pt0302            
     149  pt0304                   4  pt0304            
     150  pt0306                   4  pt0306            
     151  pt0308                   4  pt0308            
     152  pt0310                   4  pt0310            
     153  pt0312                   4  pt0312            
     154  pt0314                   4  pt0314            
     155  pt0316                   4  pt0316            
     156  pt0318                   4  pt0318            
     157  pt0320                   4  pt0320            
     158  pt0322                   4  pt0322            
     159  pt0324                   4  pt0324            
     160  pt0326                   4  pt0326            
     161  pt0328                   4  pt0328            
     162  pt0330                   4  pt0330            
     163  pt0332                   4  pt0332            
     164  pt0334                   4  pt0334            
     165  pt0336                   4  pt0336            
     166  pt0338                   4  pt0338            
     167  pt0340                   4  pt0340            
     168  pt0342                   4  pt0342            
     169  pt0344                   4  pt0344            
     170  pt0346                   4  pt0346            
     171  pt0348                   4  pt0348            
     172  pt0350                   4  pt0350            
     173  pt0352                   4  pt0352            
     174  pt0354                   4  pt0354            
     175  pt0356                   4  pt0356            
     176  pt0358                   4  pt0358            
     177  pt0360                   4  pt0360            
     178  pt0362                   4  pt0362            
     179  pt0364                   4  pt0364            
     180  pt0366                   4  pt0366            
     181  pt0368                   4  pt0368            
     182  pt0370                   4  pt0370            
     183  pt0372                   4  pt0372            
     184  pt0374                   4  pt0374            
     185  pt0376                   4  pt0376            
     186  pt0378                   4  pt0378            
     187  pt0380                   4  pt0380            
     188  pt0382                   4  pt0382            
     189  pt0384                   4  pt0384            
     190  pt0386                   4  pt0386            
     191  pt0388                   4  pt0388            
     192  pt0390                   4  pt0390            
     193  pt0392                   4  pt0392            
     194  pt0394                   4  pt0394            
     195  pt0396                   4  pt0396            
     196  pt0398                   4  pt0398            
     197  pt0400                   4  pt0400            
     198  pt0402                   4  pt0402            
     199  pt0404                   4  pt0404            
     200  pt0406                   4  pt0406            
     201  pt0408                   4  pt0408            
     202  pt0410                   4  pt0410            
     203  pt0412                   4  pt0412            
     204  pt0414                   4  pt0414            
     205  pt0416                   4  pt0416            
     206  pt0418                   4  pt0418            
     207  pt0420                   4  pt0420            
     208  pt0422                   4  pt0422            
     209  pt0424                   4  pt0424            
     210  pt0426                   4  pt0426            
     211  pt0428                   4  pt0428            
     212  pt0430                   4  pt0430            
     213  pt0432                   4  pt0432            
     214  pt0434                   4  pt0434            
     215  pt0436                   4  pt0436            
     216  pt0438                   4  pt0438            
     217  pt0440                   4  pt0440            
     218  pt0442                   4  pt0442            
     219  pt0444                   4  pt0444            
     220  pt0446                   4  pt0446            
     221  pt0448                   4  pt0448            
     222  pt0450                   4  pt0450            
     223  pt0452                   4  pt0452            
     224  pt0454                   4  pt0454            
     225  pt0456                   4  pt0456            
     226  pt0458                   4  pt0458            
     227  pt0460                   4  pt0460            
     228  pt0462                   4  pt0462            
     229  pt0464                   4  pt0464            
     230  pt0466                   4  pt0466            
     231  pt0468                   4  pt0468            
     232  pt0470                   4  pt0470            
     233  pt0472                   4  pt0472            
     234  pt0474                   4  pt0474            
     235  pt0476                   4  pt0476            
     236  pt0478                   4  pt0478            
     237  pt0480                   4  pt0480            
     238  pt0482                   4  pt0482            
     239  pt0484                   4  pt0484            
     240  pt0486                   4  pt0486            
     241  pt0488                   4  pt0488            
     242  pt0490                   4  pt0490            
     243  pt0492                   4  pt0492            
     244  pt0494                   4  pt0494            
     245  pt0496                   4  pt0496            
     246  pt0498                   4  pt0498            
     247  pt0500                   4  pt0500            
     248  pt0502                   4  pt0502            
     249  pt0504                   4  pt0504            
     250  pt0506                   4  pt0506            
     251  pt0508                   4  pt0508            
     252  pt0510                   4  pt0510            
     253  pt0512                   4  pt0512            
     254  pt0514                   4  pt0514            
     255  pt0516                   4  pt0516            
     256  pt0518                   4  pt0518            
     257  pt0520                   4  pt0520            
     258  pt0522                   4  pt0522            
     259  pt0524                   4  pt0524            
     260  pt0526                   4  pt0526            
     261  pt0528                   4  pt0528            
     262  pt0530                   4  pt0530            
     263  pt0532                   4  pt0532            
     264  pt0534                   4  pt0534            
     265  pt0536                   4  pt0536            
     266  pt0538                   4  pt0538            
     267  pt0540                   4  pt0540            
     268  pt0542                   4  pt0542            
     269  pt0544                   4  pt0544            
     270  pt0546                   4  pt0546            
     271  pt0548                   4  pt0548            
     272  pt0550                   4  pt0550            
     273  pt0552                   4  pt0552            
     274  pt0554                   4  pt0554            
     275  pt0556                   4  pt0556            
     276  pt0558                   4  pt0558            
     277  pt0560                   4  pt0560            
     278  pt0562                   4  pt0562            
     279  pt0564                   4  pt0564            
     280  pt0566                   4  pt0566            
     281  pt0568                   4  pt0568            
     282  pt0570                   4  pt0570            
     283  pt0572                   4  pt0572            
     284  pt0574                   4  pt0574            
     285  pt0576                   4  pt0576            
     286  pt0578                   4  pt0578            
     287  pt0580                   4  pt0580            
     288  pt0582                   4  pt0582            
     289  pt0584                   4  pt0584            
     290  pt0586                   4  pt0586            
     291  pt0588                   4  pt0588            
     292  pt0590                   4  pt0590            
     293  pt0592                   4  pt0592            
     294  pt0594                   4  pt0594            
     295  pt0596                   4  pt0596            
     296  pt0598                   4  pt0598            
     297  pt0600                   4  pt0600            
     298  pt0602                   4  pt0602            
     299  pt0604                   4  pt0604            
     300  pt0606                   4  pt0606            
     301  pt0608                   4  pt0608            
     302  pt0610                   4  pt0610            
     303  pt0612                   4  pt0612            
     304  pt0614                   4  pt0614            
     305  pt0616                   4  pt0616            
     306  pt0618                   4  pt0618            
     307  pt0620                   4  pt0620            
     308  pt0622                   4  pt0622            
     309  pt0624                   4  pt0624            
     310  pt0626                   4  pt0626            
     311  pt0628                   4  pt0628            
     312  pt0630                   4  pt0630            
     313  pt0632                   4  pt0632            
     314  pt0634                   4  pt0634            
     315  pt0636                   4  pt0636            
     316  pt0638                   4  pt0638            
     317  pt0640                   4  pt0640            
     318  pt0642                   4  pt0642            
     319  pt0644                   4  pt0644            
     320  pt0646                   4  pt0646            
     321  pt0648                   4  pt0648            
     322  pt0650                   4  pt0650            
     323  pt0652                   4  pt0652            
     324  pt0654                   4  pt0654            
     325  pt0656                   4  pt0656            
     326  pt0658                   4  pt0658            
     327  pt0660                   4  pt0660            
     328  pt0662                   4  pt0662            
     329  pt0664                   4  pt0664            
     330  pt0666                   4  pt0666            
     331  pt0668                   4  pt0668            
     332  pt0670                   4  pt0670            
     333  pt0672                   4  pt0672            
     334  pt0674                   4  pt0674            
     335  pt0676                   4  pt0676            
     336  pt0678                   4  pt0678            
     337  pt0680                   4  pt0680            
     338  pt0682                   4  pt0682            
     339  pt0684                   4  pt0684            
     340  pt0686                   4  pt0686            
     341  pt0688                   4  pt0688            
     342  pt0690                   4  pt0690            
     343  pt0692                   4  pt0692            
     344  pt0694                   4  pt0694            
     345  pt0696                   4  pt0696            
     346  pt0698                   4  pt0698            
     347  pt0700                   4  pt0700            
     348  pt0702                   4  pt0702            
     349  pt0704                   4  pt0704            
     350  pt0706                   4  pt0706            
     351  pt0708                   4  pt0708            
     352  pt0710                   4  pt0710            
     353  pt0712                   4  pt0712            
     354  pt0714                   4  pt0714            
     355  pt0716                   4  pt0716            
     356  pt0718                   4  pt0718            
     357  pt0720                   4  pt0720            
     358  pt0722                   4  pt0722            
     359  pt0724                   4  pt0724            
     360  pt0726                   4  pt0726            
     361  pt0728                   4  pt0728            
     362  pt0730                   4  pt0730            
     363  pt0732                   4  pt0732            
     364  pt0734                   4  pt0734            
     365  pt0736                   4  pt0736            
     366  pt0738                   4  pt0738            
     367  pt0740                   4  pt0740            
     368  pt0742                   4  pt0742            
     369  pt0744                   4  pt0744            
     370  pt0746                   4  pt0746            
     371  pt0748                   4  pt0748            
     372  pt0750                   4  pt0750            
     373  pt0752                   4  pt0752            
     374  pt0754                   4  pt0754            
     375  pt0756                   4  pt0756            
     376  pt0758                   4  pt0758            
     377  pt0760                   4  pt0760            
     378  pt0762                   4  pt0762            
     379  pt0764                   4  pt0764            
     380  pt0766                   4  pt0766            
     381  pt0768                   4  pt0768            
     382  pt0770                   4  pt0770            
     383  pt0772                   4  pt0772            
     384  pt0774                   4  pt0774            
     385  pt0776                   4  pt0776            
     386  pt0778                   4  pt0778            
     387  pt0780                   4  pt0780            
     388  pt0782                   4  pt0782            
     389  pt0784                   4  pt0784            
     390  pt0786                   4  pt0786            
     391  pt0788                   4  pt0788            
     392  pt0790                   4  pt0790            
     393  pt0792                   4  pt0792            
     394  pt0794                   4  pt0794            
     395  pt0796                   4  pt0796            
     396  pt0798                   4  pt0798            
     397  pt0800                   4  pt0800            
     398  pt0802                   4  pt0802            
     399  pt0804                   4  pt0804            
     400  pt0806                   4  pt0806            
     401  pt0808                   4  pt0808            
     402  pt0810                   4  pt0810            
     403  pt0812                   4  pt0812            
     404  pt0814                   4  pt0814            
     405  pt0816                   4  pt0816            
     406  pt0818                   4  pt0818            
     407  pt0820                   4  pt0820            
     408  pt0822                   4  pt0822            
     409  pt0824                   4  pt0824            
     410  pt0826                   4  pt0826            
     411  pt0828                   4  pt0828            
     412  pt0830                   4  pt0830            
     413  pt0832                   4  pt0832            
     414  pt0834                   4  pt0834            
     415  pt0836                   4  pt0836            
     416  pt0838                   4  pt0838            
     417  pt0840                   4  pt0840            
     418  pt0842                   4  pt0842            
     419  pt0844                   4  pt0844            
     420  pt0846                   4  pt0846            
     421  pt0848                   4  pt0848            
     422  pt0850                   4  pt0850            
     423  pt0852                   4  pt0852            
     424  pt0854                   4  pt0854            
     425  pt0856                   4  pt0856            
     426  pt0858                   4  pt0858            
     427  pt0860                   4  pt0860            
     428  pt0862                   4  pt0862            
     429  pt0864                   4  pt0864            
     430  pt0866                   4  pt0866            
     431  pt0868                   4  pt0868            
     432  pt0870                   4  pt0870            
     433  pt0872                   4  pt0872            
     434  pt0874                   4  pt0874            
     435  pt0876                   4  pt0876            
     436  pt0878                   4  pt0878            
     437  pt0880                   4  pt0880            
     438  pt0882                   4  pt0882            
     439  pt0884                   4  pt0884            
     440  pt0886                   4  pt0886            
     441  pt0888                   4  pt0888            
     442  pt0890                   4  pt0890            
     443  pt0892                   4  pt0892            
     444  pt0894                   4  pt0894            
     445  pt0896                   4  pt0896            
     446  pt0898                   4  pt0898            
     447  pt0900                   4  pt0900            
     448  pt0902                   4  pt0902            
     449  pt0904                   4  pt0904            
     450  pt0906                   4  pt0906            
     451  pt0908                   4  pt0908            
     452  pt0910                   4  pt0910            
     453  pt0912                   4  pt0912            
     454  pt0914                   4  pt0914            
     455  pt0916                   4  pt0916            
     456  pt0918                   4  pt0918            
     457  pt0920                   4  pt0920            
     458  pt0922                   4  pt0922            
     459  pt0924                   4  pt0924            
     460  pt0926                   4  pt0926            
     461  pt0928                   4  pt0928            
     462  pt0930                   4  pt0930            
     463  pt0932                   4  pt0932            
     464  pt0934                   4  pt0934            
     465  pt0936                   4  pt0936            
     466  pt0938                   4  pt0938            
     467  pt0940                   4  pt0940            
     468  pt0942                   4  pt0942            
     469  pt0944                   4  pt0944            
     470  pt0946                   4  pt0946            
     471  pt0948                   4  pt0948            
     472  pt0950                   4  pt0950            
     473  pt0952                   4  pt0952            
     474  pt0954                   4  pt0954            
     475  pt0956                   4  pt0956            
     476  pt0958                   4  pt0958            
     477  pt0960                   4  pt0960            
     478  pt0962                   4  pt0962            
     479  pt0964                   4  pt0964            
     480  pt0966                   4  pt0966            
     481  pt0968                   4  pt0968            
     482  pt0970                   4  pt0970            
     483  pt0972                   4  pt0972            
     484  pt0974                   4  pt0974            
     485  pt0976                   4  pt0976            
     486  pt0978                   4  pt0978            
     487  pt0980                   4  pt0980            
     488  pt0982                   4  pt0982            
     489  pt0984                   4  pt0984            
     490  pt0986                   4  pt0986            
     491  pt0988                   4  pt0988            
     492  pt0990                   4  pt0990            
     493  pt0992                   4  pt0992            
     494  pt0994                   4  pt0994            
     495  pt0996                   4  pt0996            
     496  pt0998                   4  pt0998            
     497  pt1000                   4  pt1000            
     498  pt1002                   4  pt1002            
     499  pt1004                   4  pt1004            
     500  pt1006                   4  pt1006            
     501  pt1008                   4  pt1008            
     502  pt1010                   4  pt1010            
     503  pt1012                   4  pt1012            
     504  pt1014                   4  pt1014            
     505  pt1016                   4  pt1016            
     506  pt1018                   4  pt1018            
     507  pt1020                   4  pt1020            
     508  pt1022                   4  pt1022            
     509  pt1024                   4  pt1024            
     510  pt1026                   4  pt1026            
     511  pt1028                   4  pt1028            
     512  pt1030                   4  pt1030            
     513  pt1032                   4  pt1032            
     514  pt1034                   4  pt1034            
     515  pt1036                   4  pt1036            
     516  pt1038                   4  pt1038            
     517  pt1040                   4  pt1040            
     518  pt1042                   4  pt1042            
     519  pt1044                   4  pt1044            
     520  pt1046                   4  pt1046            
     521  pt1048                   4  pt1048            
     522  pt1050                   4  pt1050            
     523  pt1052                   4  pt1052            
     524  pt1054                   4  pt1054            
     525  pt1056                   4  pt1056            
     526  pt1058                   4  pt1058            
     527  pt1060                   4  pt1060            
     528  pt1062                   4  pt1062            
     529  pt1064                   4  pt1064            
     530  pt1066                   4  pt1066            
     531  pt1068                   4  pt1068            
     532  pt1070                   4  pt1070            
     533  pt1072                   4  pt1072            
     534  pt1074                   4  pt1074            
     535  pt1076                   4  pt1076            
     536  pt1078                   4  pt1078            
     537  pt1080                   4  pt1080            
     538  pt1082                   4  pt1082            
     539  pt1084                   4  pt1084            
     540  pt1086                   4  pt1086            
     541  pt1088                   4  pt1088            
     542  pt1090                   4  pt1090            
     543  pt1092                   4  pt1092            
     544  pt1094                   4  pt1094            
     545  pt1096                   4  pt1096            
     546  pt1098                   4  pt1098            
     547  pt1100                   4  pt1100            
     548  pt1102                   4  pt1102            
     549  pt1104                   4  pt1104            
     550  pt1106                   4  pt1106            
     551  pt1108                   4  pt1108            
     552  pt1110                   4  pt1110            
     553  pt1112                   4  pt1112            
     554  pt1114                   4  pt1114            
     555  pt1116                   4  pt1116            
     556  pt1118                   4  pt1118            
     557  pt1120                   4  pt1120            
     558  pt1122                   4  pt1122            
     559  pt1124                   4  pt1124            
     560  pt1126                   4  pt1126            
     561  pt1128                   4  pt1128            
     562  pt1130                   4  pt1130            
     563  pt1132                   4  pt1132            
     564  pt1134                   4  pt1134            
     565  pt1136                   4  pt1136            
     566  pt1138                   4  pt1138            
     567  pt1140                   4  pt1140            
     568  pt1142                   4  pt1142            
     569  pt1144                   4  pt1144            
     570  pt1146                   4  pt1146            
     571  pt1148                   4  pt1148            
     572  pt1150                   4  pt1150            
     573  pt1152                   4  pt1152            
     574  pt1154                   4  pt1154            
     575  pt1156                   4  pt1156            
     576  pt1158                   4  pt1158            
     577  pt1160                   4  pt1160            
     578  pt1162                   4  pt1162            
     579  pt1164                   4  pt1164            
     580  pt1166                   4  pt1166            
     581  pt1168                   4  pt1168            
     582  pt1170                   4  pt1170            
     583  pt1172                   4  pt1172            
     584  pt1174                   4  pt1174            
     585  pt1176                   4  pt1176            
     586  pt1178                   4  pt1178            
     587  pt1180                   4  pt1180            
     588  pt1182                   4  pt1182            
     589  pt1184                   4  pt1184            
     590  pt1186                   4  pt1186            
     591  pt1188                   4  pt1188            
     592  pt1190                   4  pt1190            
     593  pt1192                   4  pt1192            
     594  pt1194                   4  pt1194            
     595  pt1196                   4  pt1196            
     596  pt1198                   4  pt1198            
     597  pt1200                   4  pt1200            
     598  pt1202                   4  pt1202            
     599  pt1204                   4  pt1204            
     600  pt1206                   4  pt1206            
     601  pt1208                   4  pt1208            
     602  pt1210                   4  pt1210            
     603  pt1212                   4  pt1212            
     604  pt1214                   4  pt1214            
     605  pt1216                   4  pt1216            
     606  pt1218                   4  pt1218            
     607  pt1220                   4  pt1220            
     608  pt1222                   4  pt1222            
     609  pt1224                   4  pt1224            
     610  pt1226                   4  pt1226            
     611  pt1228                   4  pt1228            
     612  pt1230                   4  pt1230            
     613  pt1232                   4  pt1232            
     614  pt1234                   4  pt1234            
     615  pt1236                   4  pt1236            
     616  pt1238                   4  pt1238            
     617  pt1240                   4  pt1240            
     618  pt1242                   4  pt1242            
     619  pt1244                   4  pt1244            
     620  pt1246                   4  pt1246            
     621  pt1248                   4  pt1248            
     622  pt1250                   4  pt1250            
     623  pt1252                   4  pt1252            
     624  pt1254                   4  pt1254            
     625  pt1256                   4  pt1256            
     626  pt1258                   4  pt1258            
     627  pt1260                   4  pt1260            
     628  pt1262                   4  pt1262            
     629  pt1264                   4  pt1264            
     630  pt1266                   4  pt1266            
     631  pt1268                   4  pt1268            
     632  pt1270                   4  pt1270            
     633  pt1272                   4  pt1272            
     634  pt1274                   4  pt1274            
     635  pt1276                   4  pt1276            
     636  pt1278                   4  pt1278            
     637  pt1280                   4  pt1280            
     638  pt1282                   4  pt1282            
     639  pt1284                   4  pt1284            
     640  pt1286                   4  pt1286            
     641  pt1288                   4  pt1288            
     642  pt1290                   4  pt1290            
     643  pt1292                   4  pt1292            
     644  pt1294                   4  pt1294            
     645  pt1296                   4  pt1296            
     646  pt1298                   4  pt1298            
     647  pt1300                   4  pt1300            
     648  pt1302                   4  pt1302            
     649  pt1304                   4  pt1304            
     650  pt1306                   4  pt1306            
     651  pt1308                   4  pt1308            
     652  pt1310                   4  pt1310            
     653  pt1312                   4  pt1312            
     654  pt1314                   4  pt1314            
     655  pt1316                   4  pt1316            
     656  pt1318                   4  pt1318            
     657  pt1320                   4  pt1320            
     658  pt1322                   4  pt1322            
     659  pt1324                   4  pt1324            
     660  pt1326                   4  pt1326            
     661  pt1328                   4  pt1328            
     662  pt1330                   4  pt1330            
     663  pt1332                   4  pt1332            
     664  pt1334                   4  pt1334            
     665  pt1336                   4  pt1336            
     666  pt1338                   4  pt1338            
     667  pt1340                   4  pt1340            
     668  pt1342                   4  pt1342            
     669  pt1344                   4  pt1344            
     670  pt1346                   4  pt1346            
     671  pt1348                   4  pt1348            
     672  pt1350                   4  pt1350            
     673  pt1352                   4  pt1352            
     674  pt1354                   4  pt1354            
     675  pt1356                   4  pt1356            
     676  pt1358                   4  pt1358            
     677  pt1360                   4  pt1360            
     678  pt1362                   4  pt1362            
     679  pt1364                   4  pt1364            
     680  pt1366                   4  pt1366            
     681  pt1368                   4  pt1368            
     682  pt1370                   4  pt1370            
     683  pt1372                   4  pt1372            
     684  pt1374                   4  pt1374            
     685  pt1376                   4  pt1376            
     686  pt1378                   4  pt1378            
     687  pt1380                   4  pt1380            
     688  pt1382                   4  pt1382            
     689  pt1384                   4  pt1384            
     690  pt1386                   4  pt1386            
     691  pt1388                   4  pt1388            
     692  pt1390                   4  pt1390            
     693  pt1392                   4  pt1392            
     694  pt1394                   4  pt1394            
     695  pt1396                   4  pt1396            
     696  pt1398                   4  pt1398            
     697  pt1400                   4  pt1400            
     698  pt1402                   4  pt1402            
     699  pt1404                   4  pt1404            
     700  pt1406                   4  pt1406            
     701  pt1408                   4  pt1408            
     702  pt1410                   4  pt1410            
     703  pt1412                   4  pt1412            
     704  pt1414                   4  pt1414            
     705  pt1416                   4  pt1416            
     706  pt1418                   4  pt1418            
     707  pt1420                   4  pt1420            
     708  pt1422                   4  pt1422            
     709  pt1424                   4  pt1424            
     710  pt1426                   4  pt1426            
     711  pt1428                   4  pt1428            
     712  pt1430                   4  pt1430            
     713  pt1432                   4  pt1432            
     714  pt1434                   4  pt1434            
     715  pt1436                   4  pt1436            
     716  pt1438                   4  pt1438            
     717  pt1440                   4  pt1440            
     718  pt1442                   4  pt1442            
     719  pt1444                   4  pt1444            
     720  pt1446                   4  pt1446            
     721  pt1448                   4  pt1448            
     722  pt1450                   4  pt1450            
     723  pt1452                   4  pt1452            
     724  pt1454                   4  pt1454            
     725  pt1456                   4  pt1456            
     726  pt1458                   4  pt1458            
     727  pt1460                   4  pt1460            
     728  pt1462                   4  pt1462            
     729  pt1464                   4  pt1464            
     730  pt1466                   4  pt1466            
     731  pt1468                   4  pt1468            
     732  pt1470                   4  pt1470            
     733  pt1472                   4  pt1472            
     734  pt1474                   4  pt1474            
     735  pt1476                   4  pt1476            
     736  pt1478                   4  pt1478            
     737  pt1480                   4  pt1480            
     738  pt1482                   4  pt1482            
     739  pt1484                   4  pt1484            
     740  pt1486                   4  pt1486            
     741  pt1488                   4  pt1488            
     742  pt1490                   4  pt1490            
     743  pt1492                   4  pt1492            
     744  pt1494                   4  pt1494            
     745  pt1496                   4  pt1496            
     746  pt1498                   4  pt1498            
     747  pt1500                   4  pt1500            
     748  pt1502                   4  pt1502            
     749  pt1504                   4  pt1504            
     750  pt1506                   4  pt1506            
     751  pt1508                   4  pt1508            
     752  pt1510                   4  pt1510            
     753  pt1512                   4  pt1512            
     754  pt1514                   4  pt1514            
     755  pt1516                   4  pt1516            
     756  pt1518                   4  pt1518            
     757  pt1520                   4  pt1520            
     758  pt1522                   4  pt1522            
     759  pt1524                   4  pt1524            
     760  pt1526                   4  pt1526            
     761  pt1528                   4  pt1528            
     762  pt1530                   4  pt1530            
     763  pt1532                   4  pt1532            
     764  pt1534                   4  pt1534            
     765  pt1536                   4  pt1536            
     766  pt1538                   4  pt1538            
     767  pt1540                   4  pt1540            
     768  pt1542                   4  pt1542            
     769  pt1544                   4  pt1544            
     770  pt1546                   4  pt1546            
     771  pt1548                   4  pt1548            
     772  pt1550                   4  pt1550            
     773  pt1552                   4  pt1552            
     774  pt1554                   4  pt1554            
     775  pt1556                   4  pt1556            
     776  pt1558                   4  pt1558            
     777  pt1560                   4  pt1560            
     778  pt1562                   4  pt1562            
     779  pt1564                   4  pt1564            
     780  pt1566                   4  pt1566            
     781  pt1568                   4  pt1568            
     782  pt1570                   4  pt1570            
     783  pt1572                   4  pt1572            
     784  pt1574                   4  pt1574            
     785  pt1576                   4  pt1576            
     786  pt1578                   4  pt1578            
     787  pt1580                   4  pt1580            
     788  pt1582                   4  pt1582            
     789  pt1584                   4  pt1584            
     790  pt1586                   4  pt1586            
     791  pt1588                   4  pt1588            
     792  pt1590                   4  pt1590            
     793  pt1592                   4  pt1592            
     794  pt1594                   4  pt1594            
     795  pt1596                   4  pt1596            
     796  pt1598                   4  pt1598            
     797  pt1600                   4  pt1600            
     798  pt1602                   4  pt1602            
     799  pt1604                   4  pt1604            
     800  pt1606                   4  pt1606            
     801  pt1608                   4  pt1608            
     802  pt1610                   4  pt1610            
     803  pt1612                   4  pt1612            
     804  pt1614                   4  pt1614            
     805  pt1616                   4  pt1616            
     806  pt1618                   4  pt1618            
     807  pt1620                   4  pt1620            
     808  pt1622                   4  pt1622            
     809  pt1624                   4  pt1624            
     810  pt1626                   4  pt1626            
     811  pt1628                   4  pt1628            
     812  pt1630                   4  pt1630            
     813  pt1632                   4  pt1632            
     814  pt1634                   4  pt1634            
     815  pt1636                   4  pt1636            
     816  pt1638                   4  pt1638            
     817  pt1640                   4  pt1640            
     818  pt1642                   4  pt1642            
     819  pt1644                   4  pt1644            
     820  pt1646                   4  pt1646            
     821  pt1648                   4  pt1648            
     822  pt1650                   4  pt1650            
     823  pt1652                   4  pt1652            
     824  pt1654                   4  pt1654            
     825  pt1656                   4  pt1656            
     826  pt1658                   4  pt1658            
     827  pt1660                   4  pt1660            
     828  pt1662                   4  pt1662            
     829  pt1664                   4  pt1664            
     830  pt1666                   4  pt1666            
     831  pt1668                   4  pt1668            
     832  pt1670                   4  pt1670            
     833  pt1672                   4  pt1672            
     834  pt1674                   4  pt1674            
     835  pt1676                   4  pt1676            
     836  pt1678                   4  pt1678            
     837  pt1680                   4  pt1680            
     838  pt1682                   4  pt1682            
     839  pt1684                   4  pt1684            
     840  pt1686                   4  pt1686            
     841  pt1688                   4  pt1688            
     842  pt1690                   4  pt1690            
     843  pt1692                   4  pt1692            
     844  pt1694                   4  pt1694            
     845  pt1696                   4  pt1696            
     846  pt1698                   4  pt1698            
     847  pt1700                   4  pt1700            
     848  pt1702                   4  pt1702            
     849  pt1704                   4  pt1704            
     850  pt1706                   4  pt1706            
     851  pt1708                   4  pt1708            
     852  pt1710                   4  pt1710            
     853  pt1712                   4  pt1712            
     854  pt1714                   4  pt1714            
     855  pt1716                   4  pt1716            
     856  pt1718                   4  pt1718            
     857  pt1720                   4  pt1720            
     858  pt1722                   4  pt1722            
     859  pt1724                   4  pt1724            
     860  pt1726                   4  pt1726            
     861  pt1728                   4  pt1728            
     862  pt1730                   4  pt1730            
     863  pt1732                   4  pt1732            
     864  pt1734                   4  pt1734            
     865  pt1736                   4  pt1736            
     866  pt1738                   4  pt1738            
     867  pt1740                   4  pt1740            
     868  pt1742                   4  pt1742            
     869  pt1744                   4  pt1744            
     870  pt1746                   4  pt1746            
     871  pt1748                   4  pt1748            
     872  pt1750                   4  pt1750            
     873  pt1752                   4  pt1752            
     874  pt1754                   4  pt1754            
     875  pt1756                   4  pt1756            
     876  pt1758                   4  pt1758            
     877  pt1760                   4  pt1760            
     878  pt1762                   4  pt1762            
     879  pt1764                   4  pt1764            
     880  pt1766                   4  pt1766            
     881  pt1768                   4  pt1768            
     882  pt1770                   4  pt1770            
     883  pt1772                   4  pt1772            
     884  pt1774                   4  pt1774            
     885  pt1776                   4  pt1776            
     886  pt1778                   4  pt1778            
     887  pt1780                   4  pt1780            
     888  pt1782                   4  pt1782            
     889  pt1784                   4  pt1784            
     890  pt1786                   4  pt1786            
     891  pt1788                   4  pt1788            
     892  pt1790                   4  pt1790            
     893  pt1792                   4  pt1792            
     894  pt1794                   4  pt1794            
     895  pt1796                   4  pt1796            
     896  pt1798                   4  pt1798            
     897  pt1800                   4  pt1800            
     898  pt1802                   4  pt1802            
     899  pt1804                   4  pt1804            
     900  pt1806                   4  pt1806            
     901  pt1808                   4  pt1808            
     902  pt1810                   4  pt1810            
